                                  SEAWAT Version 4
      U.S. GEOLOGICAL SURVEY MODULAR FINITE-DIFFERENCE GROUND-WATER FLOW MODEL
                           VERSION 4.00.05 10/19/2012


 This model run produced both GLOBAL and LIST files.  This is the LIST file.

  ----- 
 | M T | Conversion from Groundwater Vistas                                              
 | 3 D | MT3D Model                                                                      
  ----- 
 THE TRANSPORT MODEL CONSISTS OF    20 LAYER(S)    1 ROW(S)   20 COLUMN(S)
 NUMBER OF STRESS PERIOD(S) FOR TRANSPORT SIMULATION =    1
 NUMBER OF ALL COMPONENTS INCLUDED IN SIMULATION =    1
 NUMBER OF MOBILE COMPONENTS INCLUDED IN SIMULATION =    1
 UNIT FOR TIME IS DAY ;  UNIT FOR LENGTH IS M   ;  UNIT FOR MASS IS KG  
 OPTIONAL PACKAGES INCLUDED IN CURRENT SIMULATION:
  o ADV   ON UNIT 24
  o DSP   ON UNIT 25
  o GCG   ON UNIT 26


 VDF -- VARIABLE DENSITY FLOW, VERSION 1, 2/13/2004
         INPUT READ FROM UNIT 27

 COUPLING BETWEEN FLOW AND TRANSPORT IS EXPLICIT
 VARIABLE-DENSITY WATER-TABLE CORRECTIONS NOT ADDED
 MT3DMS SPECIES USED IN EQUATION OF STATE FOR FLUID DENSITY:          1
 AN UPSTREAM-WEIGHTED ALGORITHM IS USED TO CALCULATE FLUID DENSITY TERMS THAT CONSERVE MASS
 1000.0     REFERENCE DENSITY
 0.7000     DENSITY SLOPE FOR EQUATION OF STATE
 DENSITY EQUATION OF STATE
 RHO =    1000.000    
  + 0.7000     * ( CONC(   1) -  0.000     )



 FIRSTDT SPECIFIED BY USER IN THE VDF FILE IS:   0.1000000E-02
 BTN5 -- BASIC TRANSPORT PACKAGE, VERSION 5, OCTOBER 2006, INPUT READ FROM UNIT 23
       6062 ELEMENTS OF THE  X ARRAY USED BY THE BTN PACKAGE
        420 ELEMENTS OF THE IX ARRAY USED BY THE BTN PACKAGE

 FLOW MODEL IS STEADY-STATE

 ADV5 -- ADVECTION PACKAGE, VERSION 5, FEBRUARY 2005, INPUT READ FROM UNIT 24
 ADVECTION IS SOLVED WITH THE UPSTREAM FINITE DIFFERENCE SCHEME
 COURANT NUMBER ALLOWED IN SOLVING THE ADVECTION TERM = 1.000    
          0 ELEMENTS OF THE  X ARRAY USED BY THE ADV PACKAGE
          0 ELEMENTS OF THE IX ARRAY USED BY THE ADV PACKAGE

 DSP5 -- DISPERSION PACKAGE, VERSION 5, OCTOBER 2006, INPUT READ FROM UNIT 25
       4440 ELEMENTS OF THE  X ARRAY USED BY THE DSP PACKAGE
          0 ELEMENTS OF THE IX ARRAY USED BY THE DSP PACKAGE

 GCG5 -- GENERALIZED CONJUGATE GRADIENT SOLVER PACKAGE, VERSION 5, FEBRUARY 2005 INPUT READ FROM UNIT 26
 MAXIMUM OF    1 OUTER ITERATIONS
        AND   50 INNER ITERATIONS ALLOWED FOR CLOSURE
 THE PRECONDITIONING TYPE SELECTED IS MODIFIED INCOMPLETE CHOLESKY (MIC).
 DISPERSION CROSS TERMS LUMPED INTO RIGHT-HAND-SIDE
       8850 ELEMENTS OF THE  X ARRAY USED BY THE GCG PACKAGE
        150 ELEMENTS OF THE IX ARRAY USED BY THE GCG PACKAGE

 
 # MODFLOW2000 Basic Package                                                     
 #MODFLOW Data Set Created by Groundwater Vistas                                 
 #
   20 LAYERS         1 ROWS        20 COLUMNS
    1 STRESS PERIOD(S) IN SIMULATION

 BAS6 -- BASIC PACKAGE, VERSION 6, 1/11/2000 INPUT READ FROM UNIT    1
        100 ELEMENTS IN IR ARRAY ARE USED BY BAS

 BCF6 -- BLOCK-CENTERED FLOW PACKAGE, VERSION 6, 1/11/2000
         INPUT READ FROM UNIT 11
 STEADY-STATE SIMULATION
 CELL-BY-CELL FLOWS WILL BE SAVED ON UNIT 50
 HEAD AT CELLS THAT CONVERT TO DRY=   999.00    
 WETTING CAPABILITY IS NOT ACTIVE
      LAYER  LAYER-TYPE CODE     INTERBLOCK T
      --------------------------------------------
         1            0          0 -- HARMONIC    
         2            0          0 -- HARMONIC    
         3            0          0 -- HARMONIC    
         4            0          0 -- HARMONIC    
         5            0          0 -- HARMONIC    
         6            0          0 -- HARMONIC    
         7            0          0 -- HARMONIC    
         8            0          0 -- HARMONIC    
         9            0          0 -- HARMONIC    
        10            0          0 -- HARMONIC    
        11            0          0 -- HARMONIC    
        12            0          0 -- HARMONIC    
        13            0          0 -- HARMONIC    
        14            0          0 -- HARMONIC    
        15            0          0 -- HARMONIC    
        16            0          0 -- HARMONIC    
        17            0          0 -- HARMONIC    
        18            0          0 -- HARMONIC    
        19            0          0 -- HARMONIC    
        20            0          0 -- HARMONIC    
        420 ELEMENTS IN RX ARRAY ARE USED BY BCF

        420  ELEMENTS OF RX ARRAY USED OUT OF        420
          0  ELEMENTS OF RZ ARRAY USED OUT OF          1
        100  ELEMENTS OF IR ARRAY USED OUT OF        100
1
 # MODFLOW2000 Basic Package                                                     
 #MODFLOW Data Set Created by Groundwater Vistas                                 

           BOUNDARY ARRAY =              1 FOR LAYER   1

           BOUNDARY ARRAY =              1 FOR LAYER   2

           BOUNDARY ARRAY =              1 FOR LAYER   3

           BOUNDARY ARRAY =              1 FOR LAYER   4

           BOUNDARY ARRAY =              1 FOR LAYER   5

           BOUNDARY ARRAY =              1 FOR LAYER   6

           BOUNDARY ARRAY =              1 FOR LAYER   7

           BOUNDARY ARRAY =              1 FOR LAYER   8

           BOUNDARY ARRAY =              1 FOR LAYER   9

           BOUNDARY ARRAY =              1 FOR LAYER  10

           BOUNDARY ARRAY =              1 FOR LAYER  11

           BOUNDARY ARRAY =              1 FOR LAYER  12

           BOUNDARY ARRAY =              1 FOR LAYER  13

           BOUNDARY ARRAY =              1 FOR LAYER  14

           BOUNDARY ARRAY =              1 FOR LAYER  15

           BOUNDARY ARRAY =              1 FOR LAYER  16

           BOUNDARY ARRAY =              1 FOR LAYER  17

           BOUNDARY ARRAY =              1 FOR LAYER  18

           BOUNDARY ARRAY =              1 FOR LAYER  19

           BOUNDARY ARRAY =              1 FOR LAYER  20

 AQUIFER HEAD WILL BE SET TO  999.00     AT ALL NO-FLOW NODES (IBOUND=0).

             INITIAL HEAD =   0.00000     FOR LAYER   1

             INITIAL HEAD =   0.00000     FOR LAYER   2

             INITIAL HEAD =   0.00000     FOR LAYER   3

             INITIAL HEAD =   0.00000     FOR LAYER   4

             INITIAL HEAD =   0.00000     FOR LAYER   5

             INITIAL HEAD =   0.00000     FOR LAYER   6

             INITIAL HEAD =   0.00000     FOR LAYER   7

             INITIAL HEAD =   0.00000     FOR LAYER   8

             INITIAL HEAD =   0.00000     FOR LAYER   9

             INITIAL HEAD =   0.00000     FOR LAYER  10

             INITIAL HEAD =   0.00000     FOR LAYER  11

             INITIAL HEAD =   0.00000     FOR LAYER  12

             INITIAL HEAD =   0.00000     FOR LAYER  13

             INITIAL HEAD =   0.00000     FOR LAYER  14

             INITIAL HEAD =   0.00000     FOR LAYER  15

             INITIAL HEAD =   0.00000     FOR LAYER  16

             INITIAL HEAD =  0.625000     FOR LAYER  17

             INITIAL HEAD =   2.50000     FOR LAYER  18

             INITIAL HEAD =   5.00000     FOR LAYER  19

             INITIAL HEAD =   7.50000     FOR LAYER  20

 OUTPUT CONTROL IS SPECIFIED EVERY TIME STEP
 HEAD PRINT FORMAT CODE IS   0    DRAWDOWN PRINT FORMAT CODE IS   0
 HEADS WILL BE SAVED ON UNIT   30    DRAWDOWNS WILL BE SAVED ON UNIT    0

 COLUMN TO ROW ANISOTROPY =  1.000000    



               TRANSMIS. ALONG ROWS FOR LAYER   1
 READING ON UNIT   11 WITH FORMAT: (10e12.4)           



           VERT HYD COND /THICKNESS FOR LAYER   1
 READING ON UNIT   11 WITH FORMAT: (10e12.4)           



               TRANSMIS. ALONG ROWS FOR LAYER   2
 READING ON UNIT   11 WITH FORMAT: (10e12.4)           



           VERT HYD COND /THICKNESS FOR LAYER   2
 READING ON UNIT   11 WITH FORMAT: (10e12.4)           



               TRANSMIS. ALONG ROWS FOR LAYER   3
 READING ON UNIT   11 WITH FORMAT: (10e12.4)           



           VERT HYD COND /THICKNESS FOR LAYER   3
 READING ON UNIT   11 WITH FORMAT: (10e12.4)           



               TRANSMIS. ALONG ROWS FOR LAYER   4
 READING ON UNIT   11 WITH FORMAT: (10e12.4)           



           VERT HYD COND /THICKNESS FOR LAYER   4
 READING ON UNIT   11 WITH FORMAT: (10e12.4)           



               TRANSMIS. ALONG ROWS FOR LAYER   5
 READING ON UNIT   11 WITH FORMAT: (10e12.4)           



           VERT HYD COND /THICKNESS FOR LAYER   5
 READING ON UNIT   11 WITH FORMAT: (10e12.4)           



               TRANSMIS. ALONG ROWS FOR LAYER   6
 READING ON UNIT   11 WITH FORMAT: (10e12.4)           



           VERT HYD COND /THICKNESS FOR LAYER   6
 READING ON UNIT   11 WITH FORMAT: (10e12.4)           



               TRANSMIS. ALONG ROWS FOR LAYER   7
 READING ON UNIT   11 WITH FORMAT: (10e12.4)           



           VERT HYD COND /THICKNESS FOR LAYER   7
 READING ON UNIT   11 WITH FORMAT: (10e12.4)           



               TRANSMIS. ALONG ROWS FOR LAYER   8
 READING ON UNIT   11 WITH FORMAT: (10e12.4)           



           VERT HYD COND /THICKNESS FOR LAYER   8
 READING ON UNIT   11 WITH FORMAT: (10e12.4)           



               TRANSMIS. ALONG ROWS FOR LAYER   9
 READING ON UNIT   11 WITH FORMAT: (10e12.4)           



           VERT HYD COND /THICKNESS FOR LAYER   9
 READING ON UNIT   11 WITH FORMAT: (10e12.4)           



               TRANSMIS. ALONG ROWS FOR LAYER  10
 READING ON UNIT   11 WITH FORMAT: (10e12.4)           



           VERT HYD COND /THICKNESS FOR LAYER  10
 READING ON UNIT   11 WITH FORMAT: (10e12.4)           



               TRANSMIS. ALONG ROWS FOR LAYER  11
 READING ON UNIT   11 WITH FORMAT: (10e12.4)           



           VERT HYD COND /THICKNESS FOR LAYER  11
 READING ON UNIT   11 WITH FORMAT: (10e12.4)           



               TRANSMIS. ALONG ROWS FOR LAYER  12
 READING ON UNIT   11 WITH FORMAT: (10e12.4)           



           VERT HYD COND /THICKNESS FOR LAYER  12
 READING ON UNIT   11 WITH FORMAT: (10e12.4)           



               TRANSMIS. ALONG ROWS FOR LAYER  13
 READING ON UNIT   11 WITH FORMAT: (10e12.4)           



           VERT HYD COND /THICKNESS FOR LAYER  13
 READING ON UNIT   11 WITH FORMAT: (10e12.4)           



               TRANSMIS. ALONG ROWS FOR LAYER  14
 READING ON UNIT   11 WITH FORMAT: (10e12.4)           



           VERT HYD COND /THICKNESS FOR LAYER  14
 READING ON UNIT   11 WITH FORMAT: (10e12.4)           



               TRANSMIS. ALONG ROWS FOR LAYER  15
 READING ON UNIT   11 WITH FORMAT: (10e12.4)           



           VERT HYD COND /THICKNESS FOR LAYER  15
 READING ON UNIT   11 WITH FORMAT: (10e12.4)           



               TRANSMIS. ALONG ROWS FOR LAYER  16
 READING ON UNIT   11 WITH FORMAT: (10e12.4)           



           VERT HYD COND /THICKNESS FOR LAYER  16
 READING ON UNIT   11 WITH FORMAT: (10e12.4)           



               TRANSMIS. ALONG ROWS FOR LAYER  17
 READING ON UNIT   11 WITH FORMAT: (10e12.4)           



           VERT HYD COND /THICKNESS FOR LAYER  17
 READING ON UNIT   11 WITH FORMAT: (10e12.4)           



               TRANSMIS. ALONG ROWS FOR LAYER  18
 READING ON UNIT   11 WITH FORMAT: (10e12.4)           



           VERT HYD COND /THICKNESS FOR LAYER  18
 READING ON UNIT   11 WITH FORMAT: (10e12.4)           



               TRANSMIS. ALONG ROWS FOR LAYER  19
 READING ON UNIT   11 WITH FORMAT: (10e12.4)           



           VERT HYD COND /THICKNESS FOR LAYER  19
 READING ON UNIT   11 WITH FORMAT: (10e12.4)           



               TRANSMIS. ALONG ROWS FOR LAYER  20
 READING ON UNIT   11 WITH FORMAT: (10e12.4)           
 LAYER NUMBER  AQUIFER TYPE
 ------------  ------------
       1            0
       2            0
       3            0
       4            0
       5            0
       6            0
       7            0
       8            0
       9            0
      10            0
      11            0
      12            0
      13            0
      14            0
      15            0
      16            0
      17            0
      18            0
      19            0
      20            0
                                       WIDTH ALONG ROWS (DELR)  =  100.00000    
                                       WIDTH ALONG COLS (DELC)  =  100.00000    
                                       TOP ELEV. OF 1ST LAYER   =   0.000000    
                                       CELL THICKNESS (DZ)      =  100.00000     FOR LAYER  1
                                       CELL THICKNESS (DZ)      =  100.00000     FOR LAYER  2
                                       CELL THICKNESS (DZ)      =  100.00000     FOR LAYER  3
                                       CELL THICKNESS (DZ)      =  100.00000     FOR LAYER  4
                                       CELL THICKNESS (DZ)      =  100.00000     FOR LAYER  5
                                       CELL THICKNESS (DZ)      =  100.00000     FOR LAYER  6
                                       CELL THICKNESS (DZ)      =  100.00000     FOR LAYER  7
                                       CELL THICKNESS (DZ)      =  100.00000     FOR LAYER  8
                                       CELL THICKNESS (DZ)      =  100.00000     FOR LAYER  9
                                       CELL THICKNESS (DZ)      =  100.00000     FOR LAYER 10
                                       CELL THICKNESS (DZ)      =  100.00000     FOR LAYER 11
                                       CELL THICKNESS (DZ)      =  100.00000     FOR LAYER 12
                                       CELL THICKNESS (DZ)      =  100.00000     FOR LAYER 13
                                       CELL THICKNESS (DZ)      =  100.00000     FOR LAYER 14
                                       CELL THICKNESS (DZ)      =  100.00000     FOR LAYER 15
                                       CELL THICKNESS (DZ)      =  100.00000     FOR LAYER 16
                                       CELL THICKNESS (DZ)      =  100.00000     FOR LAYER 17
                                       CELL THICKNESS (DZ)      =  100.00000     FOR LAYER 18
                                       CELL THICKNESS (DZ)      =  100.00000     FOR LAYER 19
                                       CELL THICKNESS (DZ)      =  100.00000     FOR LAYER 20
                                       POROSITY                 =  0.1000000E-01 FOR LAYER  1
                                       POROSITY                 =  0.1000000E-01 FOR LAYER  2
                                       POROSITY                 =  0.1000000E-01 FOR LAYER  3
                                       POROSITY                 =  0.1000000E-01 FOR LAYER  4
                                       POROSITY                 =  0.1000000E-01 FOR LAYER  5
                                       POROSITY                 =  0.1000000E-01 FOR LAYER  6
                                       POROSITY                 =  0.1000000E-01 FOR LAYER  7
                                       POROSITY                 =  0.1000000E-01 FOR LAYER  8
                                       POROSITY                 =  0.1000000E-01 FOR LAYER  9
                                       POROSITY                 =  0.1000000E-01 FOR LAYER 10
                                       POROSITY                 =  0.1000000E-01 FOR LAYER 11
                                       POROSITY                 =  0.1000000E-01 FOR LAYER 12
                                       POROSITY                 =  0.1000000E-01 FOR LAYER 13
                                       POROSITY                 =  0.1000000E-01 FOR LAYER 14
                                       POROSITY                 =  0.1000000E-01 FOR LAYER 15
                                       POROSITY                 =  0.1000000E-01 FOR LAYER 16
                                       POROSITY                 =  0.1000000E-01 FOR LAYER 17
                                       POROSITY                 =  0.1000000E-01 FOR LAYER 18
                                       POROSITY                 =  0.1000000E-01 FOR LAYER 19
                                       POROSITY                 =  0.1000000E-01 FOR LAYER 20
                                       CONCN. BOUNDARY ARRAY    =              1 FOR LAYER  1
                                       CONCN. BOUNDARY ARRAY    =              1 FOR LAYER  2
                                       CONCN. BOUNDARY ARRAY    =              1 FOR LAYER  3
                                       CONCN. BOUNDARY ARRAY    =              1 FOR LAYER  4
                                       CONCN. BOUNDARY ARRAY    =              1 FOR LAYER  5
                                       CONCN. BOUNDARY ARRAY    =              1 FOR LAYER  6
                                       CONCN. BOUNDARY ARRAY    =              1 FOR LAYER  7
                                       CONCN. BOUNDARY ARRAY    =              1 FOR LAYER  8
                                       CONCN. BOUNDARY ARRAY    =              1 FOR LAYER  9
                                       CONCN. BOUNDARY ARRAY    =              1 FOR LAYER 10
                                       CONCN. BOUNDARY ARRAY    =              1 FOR LAYER 11
                                       CONCN. BOUNDARY ARRAY    =              1 FOR LAYER 12
                                       CONCN. BOUNDARY ARRAY    =              1 FOR LAYER 13
                                       CONCN. BOUNDARY ARRAY    =              1 FOR LAYER 14
                                       CONCN. BOUNDARY ARRAY    =              1 FOR LAYER 15
                                       CONCN. BOUNDARY ARRAY    =              1 FOR LAYER 16
                                       CONCN. BOUNDARY ARRAY    =              1 FOR LAYER 17
                                       CONCN. BOUNDARY ARRAY    =              1 FOR LAYER 18
                                       CONCN. BOUNDARY ARRAY    =              1 FOR LAYER 19
                                       CONCN. BOUNDARY ARRAY    =              1 FOR LAYER 20
                                       INITIAL CONC.: COMP.  01 =   0.000000     FOR LAYER  1
                                       INITIAL CONC.: COMP.  01 =   0.000000     FOR LAYER  2
                                       INITIAL CONC.: COMP.  01 =   0.000000     FOR LAYER  3
                                       INITIAL CONC.: COMP.  01 =   0.000000     FOR LAYER  4
                                       INITIAL CONC.: COMP.  01 =   0.000000     FOR LAYER  5
                                       INITIAL CONC.: COMP.  01 =   0.000000     FOR LAYER  6
                                       INITIAL CONC.: COMP.  01 =   0.000000     FOR LAYER  7
                                       INITIAL CONC.: COMP.  01 =   0.000000     FOR LAYER  8
                                       INITIAL CONC.: COMP.  01 =   0.000000     FOR LAYER  9
                                       INITIAL CONC.: COMP.  01 =   0.000000     FOR LAYER 10
                                       INITIAL CONC.: COMP.  01 =   0.000000     FOR LAYER 11
                                       INITIAL CONC.: COMP.  01 =   0.000000     FOR LAYER 12
                                       INITIAL CONC.: COMP.  01 =   0.000000     FOR LAYER 13
                                       INITIAL CONC.: COMP.  01 =   0.000000     FOR LAYER 14
                                       INITIAL CONC.: COMP.  01 =   0.000000     FOR LAYER 15
                                       INITIAL CONC.: COMP.  01 =   0.000000     FOR LAYER 16
                                       INITIAL CONC.: COMP.  01 =   0.000000     FOR LAYER 17
                                       INITIAL CONC.: COMP.  01 =   35.00000     FOR LAYER 18
                                       INITIAL CONC.: COMP.  01 =   35.00000     FOR LAYER 19
                                       INITIAL CONC.: COMP.  01 =   35.00000     FOR LAYER 20

 VALUE INDICATING INACTIVE CONCENTRATION CELLS =  -1.0000000    
 MINIMUM SATURATED THICKNESS [THKMIN] ALLOWED =  0.0500 OF TOTAL CELL THICKNESS


 OUTPUT CONTROL OPTIONS
 ----------------------

 PRINT CELL CONCENTRATION USING FORMAT CODE:    5
 DO NOT PRINT PARTICLE NUMBER IN EACH CELL
 DO NOT PRINT RETARDATION FACTOR
 DO NOT PRINT DISPERSION COEFFICIENT
 SAVE DISSOLVED PHASE CONCENTRATIONS IN UNFORMATTED FILES [MT3Dnnn.UCN]
  FOR EACH SPECIES ON UNITS 201 AND ABOVE

 SIMULATION RESULTS ARE SAVED EVERY   1 TRANSPORT STEP(S)

 NUMBER OF OBSERVATION POINTS =    1
 SAVE CONCENTRATIONS AT OBSERVATION POINTS IN FILES [MT3Dnnn.OBS]
  FOR EACH SPECIES ON UNITS 401 AND ABOVE, EVERY 10 TRANSPORT STEPS
 LOCATION OF OBSERVATION POINTS
 ..............................
 NUMBER  LAYER   ROW   COLUMN
   1       16      1     11

 SAVE ONE-LINE SUMMARY OF MASS BUDGETS IN FILES [MT3Dnnn.MAS]
  FOR EACH SPECIES ON UNITS 601 AND ABOVE, EVERY 10 TRANSPORT STEPS

 MAXIMUM LENGTH ALONG THE X (J) AXIS =   2000.000    
 MAXIMUM LENGTH ALONG THE Y (I) AXIS =  100.00000    
 MAXIMUM LENGTH ALONG THE Z (K) AXIS =   2000.000    


 ADVECTION SOLUTION OPTIONS
 --------------------------

 ADVECTION IS SOLVED WITH THE UPSTREAM FINITE DIFFERENCE SCHEME
 COURANT NUMBER ALLOWED IN SOLVING THE ADVECTION TERM = 1.000    


 DISPERSION INPUT PARAMETERS
 ---------------------------

                                       LONG. DISPERSIVITY (AL)  =  100.00000     FOR LAYER  1
                                       LONG. DISPERSIVITY (AL)  =  100.00000     FOR LAYER  2
                                       LONG. DISPERSIVITY (AL)  =  100.00000     FOR LAYER  3
                                       LONG. DISPERSIVITY (AL)  =  100.00000     FOR LAYER  4
                                       LONG. DISPERSIVITY (AL)  =  100.00000     FOR LAYER  5
                                       LONG. DISPERSIVITY (AL)  =  100.00000     FOR LAYER  6
                                       LONG. DISPERSIVITY (AL)  =  100.00000     FOR LAYER  7
                                       LONG. DISPERSIVITY (AL)  =  100.00000     FOR LAYER  8
                                       LONG. DISPERSIVITY (AL)  =  100.00000     FOR LAYER  9
                                       LONG. DISPERSIVITY (AL)  =  100.00000     FOR LAYER 10
                                       LONG. DISPERSIVITY (AL)  =  100.00000     FOR LAYER 11
                                       LONG. DISPERSIVITY (AL)  =  100.00000     FOR LAYER 12
                                       LONG. DISPERSIVITY (AL)  =  100.00000     FOR LAYER 13
                                       LONG. DISPERSIVITY (AL)  =  100.00000     FOR LAYER 14
                                       LONG. DISPERSIVITY (AL)  =  100.00000     FOR LAYER 15
                                       LONG. DISPERSIVITY (AL)  =  100.00000     FOR LAYER 16
                                       LONG. DISPERSIVITY (AL)  =  100.00000     FOR LAYER 17
                                       LONG. DISPERSIVITY (AL)  =  100.00000     FOR LAYER 18
                                       LONG. DISPERSIVITY (AL)  =  100.00000     FOR LAYER 19
                                       LONG. DISPERSIVITY (AL)  =  100.00000     FOR LAYER 20

                           H. TRANS./LONG. DISP.    READ ON UNIT 25 USING FORMAT: "(10E12.4)           "
                           -----------------------------------------------------------------------------

                           V. TRANS./LONG. DISP.    READ ON UNIT 25 USING FORMAT: "(10E12.4)           "
                           -----------------------------------------------------------------------------

                           DIFFUSION COEFFICIENT    READ ON UNIT 25 USING FORMAT: "(10E12.4)           "
                           -----------------------------------------------------------------------------



                                               SOLUTION BY THE GENERALIZED CONJUGATE GRADIENT METHOD
                                               -----------------------------------------------------
                                     MAXIMUM OUTER ITERATIONS ALLOWED FOR CLOSURE =        1
                                     MAXIMUM INNER ITERATIONS ALLOWED FOR CLOSURE =       50
                                                    PRECONDITIONING TYPE SELECTED =    3
                                                           ACCELERATION PARAMETER =    1.00000    
                                       CONCENTRATION CHANGE CRITERION FOR CLOSURE =    0.10000E-05
                                       GCG CONCENTRATION CHANGE PRINTOUT INTERVAL =        5


                                   ++++++++++++++++++++++++++++++++++++++++++++++++++++++++++++++
                                                       STRESS PERIOD NO.  001
                                   ++++++++++++++++++++++++++++++++++++++++++++++++++++++++++++++


 LENGTH OF CURRENT STRESS PERIOD =   50000.00    
 NUMBER OF TIME STEPS FOR CURRENT STRESS PERIOD =    1
 TIME STEP MULTIPLIER USED IN FLOW SOLUTION =  1.0000000    
 USER-SPECIFIED TRANSPORT STEPSIZE =   0.000000    DAY 
 MAXIMUM NUMBER OF TRANSPORT STEPS ALLOWED  IN ONE FLOW TIME STEP =      5000
 MULTIPLIER FOR SUCCESSIVE TRANSPORT STEPS  [USED IN IMPLICIT SCHEMES] =     1.000
 MAXIMUM TRANSPORT STEP SIZE  [USED IN IMPLICIT SCHEMES] =   500.0000    DAY 
1
                            STRESS PERIOD NO.    1, LENGTH =   50000.00    
                            -----------------------------------------------

                              NUMBER OF TIME STEPS =     1

                               MULTIPLIER FOR DELT =     1.000

                            INITIAL TIME STEP SIZE =   50000.00    


                                          ================================================
                                                         FROM TIME =   0.0000     TO    50000.    

 
 SOLVING FOR HEAD 

 AVERAGE SEED = 0.00616477
 MINIMUM SEED = 0.00609385

    10 ITERATION PARAMETERS CALCULATED FROM AVERAGE SEED:

  0.000000E+00 0.431886E+00 0.677247E+00 0.816640E+00 0.895830E+00
  0.940820E+00 0.966379E+00 0.980899E+00 0.989149E+00 0.993835E+00

    51 ITERATIONS FOR TIME STEP   1 IN STRESS PERIOD    1

 MAXIMUM HEAD CHANGE FOR EACH ITERATION:

    HEAD CHANGE   HEAD CHANGE   HEAD CHANGE   HEAD CHANGE   HEAD CHANGE
  LAYER,ROW,COL LAYER,ROW,COL LAYER,ROW,COL LAYER,ROW,COL LAYER,ROW,COL
 ----------------------------------------------------------------------
      20.36        -9.963        -7.554        -4.523        -4.545    
  ( 17,  1, 20) ( 20,  1,  1) ( 20,  1,  4) ( 20,  1,  1) ( 20,  1,  6)
     -2.962        -3.072         1.850        -1.560        0.7021    
  ( 20,  1,  1) ( 20,  1,  8) (  1,  1, 10) ( 20,  1, 13) (  1,  1, 10)
    -0.2481E-01    0.1698E-01   -0.2549E-01    0.2514E-01   -0.3682E-01
  ( 20,  1, 20) (  1,  1, 20) ( 20,  1, 20) (  1,  1, 20) ( 20,  1, 20)
     0.3318E-01   -0.4175E-01    0.3363E-01   -0.2532E-01    0.1173E-01
  (  1,  1, 20) ( 20,  1, 20) (  1,  1,  7) ( 20,  1, 20) (  1,  1,  9)
    -0.4305E-03    0.2911E-03   -0.3897E-03    0.3911E-03   -0.5287E-03
  ( 20,  1, 20) (  6,  1,  2) ( 20,  1, 20) (  1,  1,  3) ( 20,  1, 20)
     0.5937E-03   -0.6277E-03    0.5679E-03   -0.4098E-03    0.1995E-03
  (  1,  1,  5) ( 20,  1, 20) (  1,  1,  7) ( 20,  1, 16) (  1,  1,  9)
    -0.7134E-05    0.4960E-05   -0.6388E-05    0.6747E-05    0.8881E-05
  ( 20,  1, 20) (  6,  1,  2) ( 20,  1, 20) (  1,  1,  3) (  1,  1,  1)
     0.1012E-04   -0.1054E-04    0.9651E-05   -0.6908E-05    0.3429E-05
  (  1,  1,  5) ( 20,  1, 12) (  1,  1,  7) ( 20,  1, 15) (  1,  1, 10)
    -0.1191E-06    0.8498E-07   -0.1061E-06    0.1161E-06    0.1521E-06
  ( 20,  1, 20) (  6,  1,  2) ( 20,  1, 20) (  1,  1,  3) (  1,  1,  1)
     0.1729E-06   -0.1808E-06    0.1646E-06   -0.1173E-06    0.5922E-07
  (  1,  1,  5) ( 20,  1, 10) (  1,  1,  7) ( 20,  1, 14) (  1,  1, 10)
     0.2016E-08
  (  6,  1,  1)

 FLOW MODEL IS STEADY-STATE


 MAXIMUM STEPSIZE DURING WHICH ANY PARTICLE CANNOT MOVE MORE THAN ONE CELL
 = 0.3202E+09(WHEN MIN. R.F.=1)  AT K=  11, I=   1, J=   2

 MAXIMUM STEPSIZE WHICH MEETS STABILITY CRITERION OF THE ADVECTION TERM
 (FOR PURE FINITE-DIFFERENCE OPTION, MIXELM=0) 
 = 0.2849E+09(WHEN MIN. R.F.=1)  AT K=  10, I=   1, J=   2

 MAXIMUM STEPSIZE WHICH MEETS STABILITY CRITERION OF THE DISPERSION TERM
 = 0.1586E+09(WHEN MIN. R.F.=1)  AT K=  10, I=   1, J=   2


     1 CALLS TO GCG PACKAGE FOR TRANSPORT TIME STEP   1 IN FLOW TIME STEP   1 STRESS PERIOD   1
     1 TOTAL ITERATIONS

 HEAD/DRAWDOWN PRINTOUT FLAG = 1     TOTAL BUDGET PRINTOUT FLAG = 1
 CELL-BY-CELL FLOW TERM FLAG = 1

 OUTPUT FLAGS FOR ALL LAYERS ARE THE SAME:
   HEAD    DRAWDOWN  HEAD  DRAWDOWN
 PRINTOUT  PRINTOUT  SAVE    SAVE
 ----------------------------------
     1         0       1       0



 >>>>>>>>>>>>>>>>>>>>>>>>>>>>>>>>>>>>>>>>>>>>>>>>>>>>>>>FOR COMPONENT NO. 01<<<<<<<<<<<<<<<<<<<<<<<<<<<<<<<<<<<<<<<<<<<<<<<<<<<<<<<


                                            -------------------------------------------
                                                      TRANSPORT STEP NO.    1
                                            -------------------------------------------

 TOTAL ELAPSED TIME SINCE BEGINNING OF SIMULATION =  0.1000000E-02DAY 
 .....................................................................

                     CONCENTRATIONS   IN LAYER  1 AT END OF TRANSPORT STEP    1, TIME STEP  1, STRESS PERIOD  1
                     ------------------------------------------------------------------------------------------

           1       2       3       4       5       6       7       8       9      10      11      12      13      14      15
          16      17      18      19      20
 ...........................................................................................................................
   1    0.000   0.000   0.000   0.000   0.000   0.000   0.000   0.000   0.000   0.000   0.000   0.000   0.000   0.000   0.000
        0.000   0.000   0.000   0.000   0.000

                     CONCENTRATIONS   IN LAYER  2 AT END OF TRANSPORT STEP    1, TIME STEP  1, STRESS PERIOD  1
                     ------------------------------------------------------------------------------------------

           1       2       3       4       5       6       7       8       9      10      11      12      13      14      15
          16      17      18      19      20
 ...........................................................................................................................
   1    0.000   0.000   0.000   0.000   0.000   0.000   0.000   0.000   0.000   0.000   0.000   0.000   0.000   0.000   0.000
        0.000   0.000   0.000   0.000   0.000

                     CONCENTRATIONS   IN LAYER  3 AT END OF TRANSPORT STEP    1, TIME STEP  1, STRESS PERIOD  1
                     ------------------------------------------------------------------------------------------

           1       2       3       4       5       6       7       8       9      10      11      12      13      14      15
          16      17      18      19      20
 ...........................................................................................................................
   1    0.000   0.000   0.000   0.000   0.000   0.000   0.000   0.000   0.000   0.000   0.000   0.000   0.000   0.000   0.000
        0.000   0.000   0.000   0.000   0.000

                     CONCENTRATIONS   IN LAYER  4 AT END OF TRANSPORT STEP    1, TIME STEP  1, STRESS PERIOD  1
                     ------------------------------------------------------------------------------------------

           1       2       3       4       5       6       7       8       9      10      11      12      13      14      15
          16      17      18      19      20
 ...........................................................................................................................
   1    0.000   0.000   0.000   0.000   0.000   0.000   0.000   0.000   0.000   0.000   0.000   0.000   0.000   0.000   0.000
        0.000   0.000   0.000   0.000   0.000

                     CONCENTRATIONS   IN LAYER  5 AT END OF TRANSPORT STEP    1, TIME STEP  1, STRESS PERIOD  1
                     ------------------------------------------------------------------------------------------

           1       2       3       4       5       6       7       8       9      10      11      12      13      14      15
          16      17      18      19      20
 ...........................................................................................................................
   1    0.000   0.000   0.000   0.000   0.000   0.000   0.000   0.000   0.000   0.000   0.000   0.000   0.000   0.000   0.000
        0.000   0.000   0.000   0.000   0.000

                     CONCENTRATIONS   IN LAYER  6 AT END OF TRANSPORT STEP    1, TIME STEP  1, STRESS PERIOD  1
                     ------------------------------------------------------------------------------------------

           1       2       3       4       5       6       7       8       9      10      11      12      13      14      15
          16      17      18      19      20
 ...........................................................................................................................
   1    0.000   0.000   0.000   0.000   0.000   0.000   0.000   0.000   0.000   0.000   0.000   0.000   0.000   0.000   0.000
        0.000   0.000   0.000   0.000   0.000

                     CONCENTRATIONS   IN LAYER  7 AT END OF TRANSPORT STEP    1, TIME STEP  1, STRESS PERIOD  1
                     ------------------------------------------------------------------------------------------

           1       2       3       4       5       6       7       8       9      10      11      12      13      14      15
          16      17      18      19      20
 ...........................................................................................................................
   1    0.000   0.000   0.000   0.000   0.000   0.000   0.000   0.000   0.000   0.000   0.000   0.000   0.000   0.000   0.000
        0.000   0.000   0.000   0.000   0.000

                     CONCENTRATIONS   IN LAYER  8 AT END OF TRANSPORT STEP    1, TIME STEP  1, STRESS PERIOD  1
                     ------------------------------------------------------------------------------------------

           1       2       3       4       5       6       7       8       9      10      11      12      13      14      15
          16      17      18      19      20
 ...........................................................................................................................
   1    0.000   0.000   0.000   0.000   0.000   0.000   0.000   0.000   0.000   0.000   0.000   0.000   0.000   0.000   0.000
        0.000   0.000   0.000   0.000   0.000

                     CONCENTRATIONS   IN LAYER  9 AT END OF TRANSPORT STEP    1, TIME STEP  1, STRESS PERIOD  1
                     ------------------------------------------------------------------------------------------

           1       2       3       4       5       6       7       8       9      10      11      12      13      14      15
          16      17      18      19      20
 ...........................................................................................................................
   1    0.000   0.000   0.000   0.000   0.000   0.000   0.000   0.000   0.000   0.000   0.000   0.000   0.000   0.000   0.000
        0.000   0.000   0.000   0.000   0.000

                     CONCENTRATIONS   IN LAYER 10 AT END OF TRANSPORT STEP    1, TIME STEP  1, STRESS PERIOD  1
                     ------------------------------------------------------------------------------------------

           1       2       3       4       5       6       7       8       9      10      11      12      13      14      15
          16      17      18      19      20
 ...........................................................................................................................
   1    0.000   0.000   0.000   0.000   0.000   0.000   0.000   0.000   0.000   0.000   0.000   0.000   0.000   0.000   0.000
        0.000   0.000   0.000   0.000   0.000

                     CONCENTRATIONS   IN LAYER 11 AT END OF TRANSPORT STEP    1, TIME STEP  1, STRESS PERIOD  1
                     ------------------------------------------------------------------------------------------

           1       2       3       4       5       6       7       8       9      10      11      12      13      14      15
          16      17      18      19      20
 ...........................................................................................................................
   1    0.000   0.000   0.000   0.000   0.000   0.000   0.000   0.000   0.000   0.000   0.000   0.000   0.000   0.000   0.000
        0.000   0.000   0.000   0.000   0.000

                     CONCENTRATIONS   IN LAYER 12 AT END OF TRANSPORT STEP    1, TIME STEP  1, STRESS PERIOD  1
                     ------------------------------------------------------------------------------------------

           1       2       3       4       5       6       7       8       9      10      11      12      13      14      15
          16      17      18      19      20
 ...........................................................................................................................
   1    0.000   0.000   0.000   0.000   0.000   0.000   0.000   0.000   0.000   0.000   0.000   0.000   0.000   0.000   0.000
        0.000   0.000   0.000   0.000   0.000

                     CONCENTRATIONS   IN LAYER 13 AT END OF TRANSPORT STEP    1, TIME STEP  1, STRESS PERIOD  1
                     ------------------------------------------------------------------------------------------

           1       2       3       4       5       6       7       8       9      10      11      12      13      14      15
          16      17      18      19      20
 ...........................................................................................................................
   1    0.000   0.000   0.000   0.000   0.000   0.000   0.000   0.000   0.000   0.000   0.000   0.000   0.000   0.000   0.000
        0.000   0.000   0.000   0.000   0.000

                     CONCENTRATIONS   IN LAYER 14 AT END OF TRANSPORT STEP    1, TIME STEP  1, STRESS PERIOD  1
                     ------------------------------------------------------------------------------------------

           1       2       3       4       5       6       7       8       9      10      11      12      13      14      15
          16      17      18      19      20
 ...........................................................................................................................
   1    0.000   0.000   0.000   0.000   0.000   0.000   0.000   0.000   0.000   0.000   0.000   0.000   0.000   0.000   0.000
        0.000   0.000   0.000   0.000   0.000

                     CONCENTRATIONS   IN LAYER 15 AT END OF TRANSPORT STEP    1, TIME STEP  1, STRESS PERIOD  1
                     ------------------------------------------------------------------------------------------

           1       2       3       4       5       6       7       8       9      10      11      12      13      14      15
          16      17      18      19      20
 ...........................................................................................................................
   1    0.000   0.000   0.000   0.000   0.000   0.000   0.000   0.000   0.000   0.000   0.000   0.000   0.000   0.000   0.000
        0.000   0.000   0.000   0.000   0.000

                     CONCENTRATIONS   IN LAYER 16 AT END OF TRANSPORT STEP    1, TIME STEP  1, STRESS PERIOD  1
                     ------------------------------------------------------------------------------------------

           1       2       3       4       5       6       7       8       9      10      11      12      13      14      15
          16      17      18      19      20
 ...........................................................................................................................
   1    0.000   0.000   0.000   0.000   0.000   0.000   0.000   0.000   0.000   0.000   0.000   0.000   0.000   0.000   0.000
        0.000   0.000   0.000   0.000   0.000

                     CONCENTRATIONS   IN LAYER 17 AT END OF TRANSPORT STEP    1, TIME STEP  1, STRESS PERIOD  1
                     ------------------------------------------------------------------------------------------

           1       2       3       4       5       6       7       8       9      10      11      12      13      14      15
          16      17      18      19      20
 ...........................................................................................................................
   1    0.000   0.000   0.000   0.000   0.000   0.000   0.000   0.000   0.000   0.000   0.000   0.000   0.000   0.000   0.000
        0.000   0.000   0.000   0.000   0.000

                     CONCENTRATIONS   IN LAYER 18 AT END OF TRANSPORT STEP    1, TIME STEP  1, STRESS PERIOD  1
                     ------------------------------------------------------------------------------------------

           1       2       3       4       5       6       7       8       9      10      11      12      13      14      15
          16      17      18      19      20
 ...........................................................................................................................
   1   35.000  35.000  35.000  35.000  35.000  35.000  35.000  35.000  35.000  35.000  35.000  35.000  35.000  35.000  35.000
       35.000  35.000  35.000  35.000  35.000

                     CONCENTRATIONS   IN LAYER 19 AT END OF TRANSPORT STEP    1, TIME STEP  1, STRESS PERIOD  1
                     ------------------------------------------------------------------------------------------

           1       2       3       4       5       6       7       8       9      10      11      12      13      14      15
          16      17      18      19      20
 ...........................................................................................................................
   1   35.000  35.000  35.000  35.000  35.000  35.000  35.000  35.000  35.000  35.000  35.000  35.000  35.000  35.000  35.000
       35.000  35.000  35.000  35.000  35.000

                     CONCENTRATIONS   IN LAYER 20 AT END OF TRANSPORT STEP    1, TIME STEP  1, STRESS PERIOD  1
                     ------------------------------------------------------------------------------------------

           1       2       3       4       5       6       7       8       9      10      11      12      13      14      15
          16      17      18      19      20
 ...........................................................................................................................
   1   35.000  35.000  35.000  35.000  35.000  35.000  35.000  35.000  35.000  35.000  35.000  35.000  35.000  35.000  35.000
       35.000  35.000  35.000  35.000  35.000

                     CUMULATIVE MASS BUDGETS AT END OF TRANSPORT STEP    1, TIME STEP    1, STRESS PERIOD    1
                     ------------------------------------------------------------------------------------------

                                                             IN                           OUT
                                                      ----------------             ----------------
                               CONSTANT CONCENTRATION:    0.000000                    0.000000    
                                        CONSTANT HEAD:    0.000000                    0.000000    
                               MASS STOR (FLOW MODEL):    0.000000                    0.000000    
                                MASS STORAGE (SOLUTE):    0.000000                    0.000000    
                            ---------------------------------------------------------------------------
                                              [TOTAL]:    0.000000     KG             0.000000     KG  

                                                          NET (IN - OUT):    0.000000    
                                                   DISCREPANCY (PERCENT):    0.000000    
 
 SOLVING FOR HEAD 

     1 ITERATIONS FOR TIME STEP   1 IN STRESS PERIOD    1

 MAXIMUM HEAD CHANGE FOR EACH ITERATION:

    HEAD CHANGE   HEAD CHANGE   HEAD CHANGE   HEAD CHANGE   HEAD CHANGE
  LAYER,ROW,COL LAYER,ROW,COL LAYER,ROW,COL LAYER,ROW,COL LAYER,ROW,COL
 ----------------------------------------------------------------------
     0.1089E-08
  (  6,  1,  2)

 FLOW MODEL IS STEADY-STATE


 MAXIMUM STEPSIZE DURING WHICH ANY PARTICLE CANNOT MOVE MORE THAN ONE CELL
 = 0.3501E+09(WHEN MIN. R.F.=1)  AT K=  11, I=   1, J=   2

 MAXIMUM STEPSIZE WHICH MEETS STABILITY CRITERION OF THE ADVECTION TERM
 (FOR PURE FINITE-DIFFERENCE OPTION, MIXELM=0) 
 = 0.3155E+09(WHEN MIN. R.F.=1)  AT K=  10, I=   1, J=   3

 MAXIMUM STEPSIZE WHICH MEETS STABILITY CRITERION OF THE DISPERSION TERM
 = 0.1737E+09(WHEN MIN. R.F.=1)  AT K=  11, I=   1, J=   2
     1 CALLS TO GCG PACKAGE FOR TRANSPORT TIME STEP   2 IN FLOW TIME STEP   1 STRESS PERIOD   1
     1 TOTAL ITERATIONS



 >>>>>>>>>>>>>>>>>>>>>>>>>>>>>>>>>>>>>>>>>>>>>>>>>>>>>>>FOR COMPONENT NO. 01<<<<<<<<<<<<<<<<<<<<<<<<<<<<<<<<<<<<<<<<<<<<<<<<<<<<<<<


                                            -------------------------------------------
                                                      TRANSPORT STEP NO.    2
                                            -------------------------------------------

 TOTAL ELAPSED TIME SINCE BEGINNING OF SIMULATION =   500.0010    DAY 
 .....................................................................

                     CONCENTRATIONS   IN LAYER  1 AT END OF TRANSPORT STEP    2, TIME STEP  1, STRESS PERIOD  1
                     ------------------------------------------------------------------------------------------

           1       2       3       4       5       6       7       8       9      10      11      12      13      14      15
          16      17      18      19      20
 ...........................................................................................................................
   1    0.000   0.000   0.000   0.000   0.000   0.000   0.000   0.000   0.000   0.000   0.000   0.000   0.000   0.000   0.000
        0.000   0.000   0.000   0.000   0.000

                     CONCENTRATIONS   IN LAYER  2 AT END OF TRANSPORT STEP    2, TIME STEP  1, STRESS PERIOD  1
                     ------------------------------------------------------------------------------------------

           1       2       3       4       5       6       7       8       9      10      11      12      13      14      15
          16      17      18      19      20
 ...........................................................................................................................
   1    0.000   0.000   0.000   0.000   0.000   0.000   0.000   0.000   0.000   0.000   0.000   0.000   0.000   0.000   0.000
        0.000   0.000   0.000   0.000   0.000

                     CONCENTRATIONS   IN LAYER  3 AT END OF TRANSPORT STEP    2, TIME STEP  1, STRESS PERIOD  1
                     ------------------------------------------------------------------------------------------

           1       2       3       4       5       6       7       8       9      10      11      12      13      14      15
          16      17      18      19      20
 ...........................................................................................................................
   1    0.000   0.000   0.000   0.000   0.000   0.000   0.000   0.000   0.000   0.000   0.000   0.000   0.000   0.000   0.000
        0.000   0.000   0.000   0.000   0.000

                     CONCENTRATIONS   IN LAYER  4 AT END OF TRANSPORT STEP    2, TIME STEP  1, STRESS PERIOD  1
                     ------------------------------------------------------------------------------------------

           1       2       3       4       5       6       7       8       9      10      11      12      13      14      15
          16      17      18      19      20
 ...........................................................................................................................
   1    0.000   0.000   0.000   0.000   0.000   0.000   0.000   0.000   0.000   0.000   0.000   0.000   0.000   0.000   0.000
        0.000   0.000   0.000   0.000   0.000

                     CONCENTRATIONS   IN LAYER  5 AT END OF TRANSPORT STEP    2, TIME STEP  1, STRESS PERIOD  1
                     ------------------------------------------------------------------------------------------

           1       2       3       4       5       6       7       8       9      10      11      12      13      14      15
          16      17      18      19      20
 ...........................................................................................................................
   1    0.000   0.000   0.000   0.000   0.000   0.000   0.000   0.000   0.000   0.000   0.000   0.000   0.000   0.000   0.000
        0.000   0.000   0.000   0.000   0.000

                     CONCENTRATIONS   IN LAYER  6 AT END OF TRANSPORT STEP    2, TIME STEP  1, STRESS PERIOD  1
                     ------------------------------------------------------------------------------------------

           1       2       3       4       5       6       7       8       9      10      11      12      13      14      15
          16      17      18      19      20
 ...........................................................................................................................
   1    0.000   0.000   0.000   0.000   0.000   0.000   0.000   0.000   0.000   0.000   0.000   0.000   0.000   0.000   0.000
        0.000   0.000   0.000   0.000   0.000

                     CONCENTRATIONS   IN LAYER  7 AT END OF TRANSPORT STEP    2, TIME STEP  1, STRESS PERIOD  1
                     ------------------------------------------------------------------------------------------

           1       2       3       4       5       6       7       8       9      10      11      12      13      14      15
          16      17      18      19      20
 ...........................................................................................................................
   1    0.000   0.000   0.000   0.000   0.000   0.000   0.000   0.000   0.000   0.000   0.000   0.000   0.000   0.000   0.000
        0.000   0.000   0.000   0.000   0.000

                     CONCENTRATIONS   IN LAYER  8 AT END OF TRANSPORT STEP    2, TIME STEP  1, STRESS PERIOD  1
                     ------------------------------------------------------------------------------------------

           1       2       3       4       5       6       7       8       9      10      11      12      13      14      15
          16      17      18      19      20
 ...........................................................................................................................
   1    0.000   0.000   0.000   0.000   0.000   0.000   0.000   0.000   0.000   0.000   0.000   0.000   0.000   0.000   0.000
        0.000   0.000   0.000   0.000   0.000

                     CONCENTRATIONS   IN LAYER  9 AT END OF TRANSPORT STEP    2, TIME STEP  1, STRESS PERIOD  1
                     ------------------------------------------------------------------------------------------

           1       2       3       4       5       6       7       8       9      10      11      12      13      14      15
          16      17      18      19      20
 ...........................................................................................................................
   1    0.000   0.000   0.000   0.000   0.000   0.000   0.000   0.000   0.000   0.000   0.000   0.000   0.000   0.000   0.000
        0.000   0.000   0.000   0.000   0.000

                     CONCENTRATIONS   IN LAYER 10 AT END OF TRANSPORT STEP    2, TIME STEP  1, STRESS PERIOD  1
                     ------------------------------------------------------------------------------------------

           1       2       3       4       5       6       7       8       9      10      11      12      13      14      15
          16      17      18      19      20
 ...........................................................................................................................
   1    0.000   0.000   0.000   0.000   0.000   0.000   0.000   0.000   0.000   0.000   0.000   0.000   0.000   0.000   0.000
        0.000   0.000   0.000   0.000   0.000

                     CONCENTRATIONS   IN LAYER 11 AT END OF TRANSPORT STEP    2, TIME STEP  1, STRESS PERIOD  1
                     ------------------------------------------------------------------------------------------

           1       2       3       4       5       6       7       8       9      10      11      12      13      14      15
          16      17      18      19      20
 ...........................................................................................................................
   1    0.000   0.000   0.000   0.000   0.000   0.000   0.000   0.000   0.000   0.000   0.000   0.000   0.000   0.000   0.000
        0.000   0.000   0.000   0.000   0.000

                     CONCENTRATIONS   IN LAYER 12 AT END OF TRANSPORT STEP    2, TIME STEP  1, STRESS PERIOD  1
                     ------------------------------------------------------------------------------------------

           1       2       3       4       5       6       7       8       9      10      11      12      13      14      15
          16      17      18      19      20
 ...........................................................................................................................
   1    0.000   0.000   0.000   0.000   0.000   0.000   0.000   0.000   0.000   0.000   0.000   0.000   0.000   0.000   0.000
        0.000   0.000   0.000   0.000   0.000

                     CONCENTRATIONS   IN LAYER 13 AT END OF TRANSPORT STEP    2, TIME STEP  1, STRESS PERIOD  1
                     ------------------------------------------------------------------------------------------

           1       2       3       4       5       6       7       8       9      10      11      12      13      14      15
          16      17      18      19      20
 ...........................................................................................................................
   1    0.000   0.000   0.000   0.000   0.000   0.000   0.000   0.000   0.000   0.000   0.000   0.000   0.000   0.000   0.000
        0.000   0.000   0.000   0.000   0.000

                     CONCENTRATIONS   IN LAYER 14 AT END OF TRANSPORT STEP    2, TIME STEP  1, STRESS PERIOD  1
                     ------------------------------------------------------------------------------------------

           1       2       3       4       5       6       7       8       9      10      11      12      13      14      15
          16      17      18      19      20
 ...........................................................................................................................
   1    0.000   0.000   0.000   0.000   0.000   0.000   0.000   0.000   0.000   0.000   0.000   0.000   0.000   0.000   0.000
        0.000   0.000   0.000   0.000   0.000

                     CONCENTRATIONS   IN LAYER 15 AT END OF TRANSPORT STEP    2, TIME STEP  1, STRESS PERIOD  1
                     ------------------------------------------------------------------------------------------

           1       2       3       4       5       6       7       8       9      10      11      12      13      14      15
          16      17      18      19      20
 ...........................................................................................................................
   1    0.000   0.000   0.000   0.000   0.000   0.000   0.000   0.000   0.000   0.000   0.000   0.000   0.000   0.000   0.000
        0.000   0.000   0.000   0.000   0.000

                     CONCENTRATIONS   IN LAYER 16 AT END OF TRANSPORT STEP    2, TIME STEP  1, STRESS PERIOD  1
                     ------------------------------------------------------------------------------------------

           1       2       3       4       5       6       7       8       9      10      11      12      13      14      15
          16      17      18      19      20
 ...........................................................................................................................
   1    0.000   0.000   0.000   0.000   0.000   0.000   0.000   0.000   0.000   0.000   0.000   0.000   0.000   0.000   0.000
        0.000   0.000   0.000   0.000   0.000

                     CONCENTRATIONS   IN LAYER 17 AT END OF TRANSPORT STEP    2, TIME STEP  1, STRESS PERIOD  1
                     ------------------------------------------------------------------------------------------

           1       2       3       4       5       6       7       8       9      10      11      12      13      14      15
          16      17      18      19      20
 ...........................................................................................................................
   1    0.000   0.000   0.000   0.000   0.000   0.000   0.000   0.000   0.000   0.000   0.000   0.000   0.000   0.000   0.000
        0.000   0.000   0.000   0.000   0.000

                     CONCENTRATIONS   IN LAYER 18 AT END OF TRANSPORT STEP    2, TIME STEP  1, STRESS PERIOD  1
                     ------------------------------------------------------------------------------------------

           1       2       3       4       5       6       7       8       9      10      11      12      13      14      15
          16      17      18      19      20
 ...........................................................................................................................
   1   35.000  35.000  35.000  35.000  35.000  35.000  35.000  35.000  35.000  35.000  35.000  35.000  35.000  35.000  35.000
       35.000  35.000  35.000  35.000  35.000

                     CONCENTRATIONS   IN LAYER 19 AT END OF TRANSPORT STEP    2, TIME STEP  1, STRESS PERIOD  1
                     ------------------------------------------------------------------------------------------

           1       2       3       4       5       6       7       8       9      10      11      12      13      14      15
          16      17      18      19      20
 ...........................................................................................................................
   1   35.000  35.000  35.000  35.000  35.000  35.000  35.000  35.000  35.000  35.000  35.000  35.000  35.000  35.000  35.000
       35.000  35.000  35.000  35.000  35.000

                     CONCENTRATIONS   IN LAYER 20 AT END OF TRANSPORT STEP    2, TIME STEP  1, STRESS PERIOD  1
                     ------------------------------------------------------------------------------------------

           1       2       3       4       5       6       7       8       9      10      11      12      13      14      15
          16      17      18      19      20
 ...........................................................................................................................
   1   35.000  35.000  35.000  35.000  35.000  35.000  35.000  35.000  35.000  35.000  35.000  35.000  35.000  35.000  35.000
       35.000  35.000  35.000  35.000  35.000

                     CUMULATIVE MASS BUDGETS AT END OF TRANSPORT STEP    2, TIME STEP    1, STRESS PERIOD    1
                     ------------------------------------------------------------------------------------------

                                                             IN                           OUT
                                                      ----------------             ----------------
                               CONSTANT CONCENTRATION:    0.000000                    0.000000    
                                        CONSTANT HEAD:    0.000000                    0.000000    
                               MASS STOR (FLOW MODEL):    0.000000                    0.000000    
                                MASS STORAGE (SOLUTE):    0.000000                    0.000000    
                            ---------------------------------------------------------------------------
                                              [TOTAL]:    0.000000     KG             0.000000     KG  

                                                          NET (IN - OUT):    0.000000    
                                                   DISCREPANCY (PERCENT):    0.000000    
 
 SOLVING FOR HEAD 

     1 ITERATIONS FOR TIME STEP   1 IN STRESS PERIOD    1

 MAXIMUM HEAD CHANGE FOR EACH ITERATION:

    HEAD CHANGE   HEAD CHANGE   HEAD CHANGE   HEAD CHANGE   HEAD CHANGE
  LAYER,ROW,COL LAYER,ROW,COL LAYER,ROW,COL LAYER,ROW,COL LAYER,ROW,COL
 ----------------------------------------------------------------------
     0.8873E-09
  (  5,  1,  1)

 FLOW MODEL IS STEADY-STATE


 MAXIMUM STEPSIZE DURING WHICH ANY PARTICLE CANNOT MOVE MORE THAN ONE CELL
 = 0.3770E+09(WHEN MIN. R.F.=1)  AT K=  11, I=   1, J=   2

 MAXIMUM STEPSIZE WHICH MEETS STABILITY CRITERION OF THE ADVECTION TERM
 (FOR PURE FINITE-DIFFERENCE OPTION, MIXELM=0) 
 = 0.3437E+09(WHEN MIN. R.F.=1)  AT K=  10, I=   1, J=   3

 MAXIMUM STEPSIZE WHICH MEETS STABILITY CRITERION OF THE DISPERSION TERM
 = 0.1874E+09(WHEN MIN. R.F.=1)  AT K=  11, I=   1, J=   2
     1 CALLS TO GCG PACKAGE FOR TRANSPORT TIME STEP   3 IN FLOW TIME STEP   1 STRESS PERIOD   1
     1 TOTAL ITERATIONS



 >>>>>>>>>>>>>>>>>>>>>>>>>>>>>>>>>>>>>>>>>>>>>>>>>>>>>>>FOR COMPONENT NO. 01<<<<<<<<<<<<<<<<<<<<<<<<<<<<<<<<<<<<<<<<<<<<<<<<<<<<<<<


                                            -------------------------------------------
                                                      TRANSPORT STEP NO.    3
                                            -------------------------------------------

 TOTAL ELAPSED TIME SINCE BEGINNING OF SIMULATION =   1000.001    DAY 
 .....................................................................

                     CONCENTRATIONS   IN LAYER  1 AT END OF TRANSPORT STEP    3, TIME STEP  1, STRESS PERIOD  1
                     ------------------------------------------------------------------------------------------

           1       2       3       4       5       6       7       8       9      10      11      12      13      14      15
          16      17      18      19      20
 ...........................................................................................................................
   1    0.000   0.000   0.000   0.000   0.000   0.000   0.000   0.000   0.000   0.000   0.000   0.000   0.000   0.000   0.000
        0.000   0.000   0.000   0.000   0.000

                     CONCENTRATIONS   IN LAYER  2 AT END OF TRANSPORT STEP    3, TIME STEP  1, STRESS PERIOD  1
                     ------------------------------------------------------------------------------------------

           1       2       3       4       5       6       7       8       9      10      11      12      13      14      15
          16      17      18      19      20
 ...........................................................................................................................
   1    0.000   0.000   0.000   0.000   0.000   0.000   0.000   0.000   0.000   0.000   0.000   0.000   0.000   0.000   0.000
        0.000   0.000   0.000   0.000   0.000

                     CONCENTRATIONS   IN LAYER  3 AT END OF TRANSPORT STEP    3, TIME STEP  1, STRESS PERIOD  1
                     ------------------------------------------------------------------------------------------

           1       2       3       4       5       6       7       8       9      10      11      12      13      14      15
          16      17      18      19      20
 ...........................................................................................................................
   1    0.000   0.000   0.000   0.000   0.000   0.000   0.000   0.000   0.000   0.000   0.000   0.000   0.000   0.000   0.000
        0.000   0.000   0.000   0.000   0.000

                     CONCENTRATIONS   IN LAYER  4 AT END OF TRANSPORT STEP    3, TIME STEP  1, STRESS PERIOD  1
                     ------------------------------------------------------------------------------------------

           1       2       3       4       5       6       7       8       9      10      11      12      13      14      15
          16      17      18      19      20
 ...........................................................................................................................
   1    0.000   0.000   0.000   0.000   0.000   0.000   0.000   0.000   0.000   0.000   0.000   0.000   0.000   0.000   0.000
        0.000   0.000   0.000   0.000   0.000

                     CONCENTRATIONS   IN LAYER  5 AT END OF TRANSPORT STEP    3, TIME STEP  1, STRESS PERIOD  1
                     ------------------------------------------------------------------------------------------

           1       2       3       4       5       6       7       8       9      10      11      12      13      14      15
          16      17      18      19      20
 ...........................................................................................................................
   1    0.000   0.000   0.000   0.000   0.000   0.000   0.000   0.000   0.000   0.000   0.000   0.000   0.000   0.000   0.000
        0.000   0.000   0.000   0.000   0.000

                     CONCENTRATIONS   IN LAYER  6 AT END OF TRANSPORT STEP    3, TIME STEP  1, STRESS PERIOD  1
                     ------------------------------------------------------------------------------------------

           1       2       3       4       5       6       7       8       9      10      11      12      13      14      15
          16      17      18      19      20
 ...........................................................................................................................
   1    0.000   0.000   0.000   0.000   0.000   0.000   0.000   0.000   0.000   0.000   0.000   0.000   0.000   0.000   0.000
        0.000   0.000   0.000   0.000   0.000

                     CONCENTRATIONS   IN LAYER  7 AT END OF TRANSPORT STEP    3, TIME STEP  1, STRESS PERIOD  1
                     ------------------------------------------------------------------------------------------

           1       2       3       4       5       6       7       8       9      10      11      12      13      14      15
          16      17      18      19      20
 ...........................................................................................................................
   1    0.000   0.000   0.000   0.000   0.000   0.000   0.000   0.000   0.000   0.000   0.000   0.000   0.000   0.000   0.000
        0.000   0.000   0.000   0.000   0.000

                     CONCENTRATIONS   IN LAYER  8 AT END OF TRANSPORT STEP    3, TIME STEP  1, STRESS PERIOD  1
                     ------------------------------------------------------------------------------------------

           1       2       3       4       5       6       7       8       9      10      11      12      13      14      15
          16      17      18      19      20
 ...........................................................................................................................
   1    0.000   0.000   0.000   0.000   0.000   0.000   0.000   0.000   0.000   0.000   0.000   0.000   0.000   0.000   0.000
        0.000   0.000   0.000   0.000   0.000

                     CONCENTRATIONS   IN LAYER  9 AT END OF TRANSPORT STEP    3, TIME STEP  1, STRESS PERIOD  1
                     ------------------------------------------------------------------------------------------

           1       2       3       4       5       6       7       8       9      10      11      12      13      14      15
          16      17      18      19      20
 ...........................................................................................................................
   1    0.000   0.000   0.000   0.000   0.000   0.000   0.000   0.000   0.000   0.000   0.000   0.000   0.000   0.000   0.000
        0.000   0.000   0.000   0.000   0.000

                     CONCENTRATIONS   IN LAYER 10 AT END OF TRANSPORT STEP    3, TIME STEP  1, STRESS PERIOD  1
                     ------------------------------------------------------------------------------------------

           1       2       3       4       5       6       7       8       9      10      11      12      13      14      15
          16      17      18      19      20
 ...........................................................................................................................
   1    0.000   0.000   0.000   0.000   0.000   0.000   0.000   0.000   0.000   0.000   0.000   0.000   0.000   0.000   0.000
        0.000   0.000   0.000   0.000   0.000

                     CONCENTRATIONS   IN LAYER 11 AT END OF TRANSPORT STEP    3, TIME STEP  1, STRESS PERIOD  1
                     ------------------------------------------------------------------------------------------

           1       2       3       4       5       6       7       8       9      10      11      12      13      14      15
          16      17      18      19      20
 ...........................................................................................................................
   1    0.000   0.000   0.000   0.000   0.000   0.000   0.000   0.000   0.000   0.000   0.000   0.000   0.000   0.000   0.000
        0.000   0.000   0.000   0.000   0.000

                     CONCENTRATIONS   IN LAYER 12 AT END OF TRANSPORT STEP    3, TIME STEP  1, STRESS PERIOD  1
                     ------------------------------------------------------------------------------------------

           1       2       3       4       5       6       7       8       9      10      11      12      13      14      15
          16      17      18      19      20
 ...........................................................................................................................
   1    0.000   0.000   0.000   0.000   0.000   0.000   0.000   0.000   0.000   0.000   0.000   0.000   0.000   0.000   0.000
        0.000   0.000   0.000   0.000   0.000

                     CONCENTRATIONS   IN LAYER 13 AT END OF TRANSPORT STEP    3, TIME STEP  1, STRESS PERIOD  1
                     ------------------------------------------------------------------------------------------

           1       2       3       4       5       6       7       8       9      10      11      12      13      14      15
          16      17      18      19      20
 ...........................................................................................................................
   1    0.000   0.000   0.000   0.000   0.000   0.000   0.000   0.000   0.000   0.000   0.000   0.000   0.000   0.000   0.000
        0.000   0.000   0.000   0.000   0.000

                     CONCENTRATIONS   IN LAYER 14 AT END OF TRANSPORT STEP    3, TIME STEP  1, STRESS PERIOD  1
                     ------------------------------------------------------------------------------------------

           1       2       3       4       5       6       7       8       9      10      11      12      13      14      15
          16      17      18      19      20
 ...........................................................................................................................
   1    0.000   0.000   0.000   0.000   0.000   0.000   0.000   0.000   0.000   0.000   0.000   0.000   0.000   0.000   0.000
        0.000   0.000   0.000   0.000   0.000

                     CONCENTRATIONS   IN LAYER 15 AT END OF TRANSPORT STEP    3, TIME STEP  1, STRESS PERIOD  1
                     ------------------------------------------------------------------------------------------

           1       2       3       4       5       6       7       8       9      10      11      12      13      14      15
          16      17      18      19      20
 ...........................................................................................................................
   1    0.000   0.000   0.000   0.000   0.000   0.000   0.000   0.000   0.000   0.000   0.000   0.000   0.000   0.000   0.000
        0.000   0.000   0.000   0.000   0.000

                     CONCENTRATIONS   IN LAYER 16 AT END OF TRANSPORT STEP    3, TIME STEP  1, STRESS PERIOD  1
                     ------------------------------------------------------------------------------------------

           1       2       3       4       5       6       7       8       9      10      11      12      13      14      15
          16      17      18      19      20
 ...........................................................................................................................
   1    0.000   0.000   0.000   0.000   0.000   0.000   0.000   0.000   0.000   0.000   0.000   0.000   0.000   0.000   0.000
        0.000   0.000   0.000   0.000   0.000

                     CONCENTRATIONS   IN LAYER 17 AT END OF TRANSPORT STEP    3, TIME STEP  1, STRESS PERIOD  1
                     ------------------------------------------------------------------------------------------

           1       2       3       4       5       6       7       8       9      10      11      12      13      14      15
          16      17      18      19      20
 ...........................................................................................................................
   1    0.000   0.000   0.000   0.000   0.000   0.000   0.000   0.000   0.000   0.000   0.000   0.000   0.000   0.000   0.000
        0.000   0.000   0.000   0.000   0.000

                     CONCENTRATIONS   IN LAYER 18 AT END OF TRANSPORT STEP    3, TIME STEP  1, STRESS PERIOD  1
                     ------------------------------------------------------------------------------------------

           1       2       3       4       5       6       7       8       9      10      11      12      13      14      15
          16      17      18      19      20
 ...........................................................................................................................
   1   35.000  35.000  35.000  35.000  35.000  35.000  35.000  35.000  35.000  35.000  35.000  35.000  35.000  35.000  35.000
       35.000  35.000  35.000  35.000  35.000

                     CONCENTRATIONS   IN LAYER 19 AT END OF TRANSPORT STEP    3, TIME STEP  1, STRESS PERIOD  1
                     ------------------------------------------------------------------------------------------

           1       2       3       4       5       6       7       8       9      10      11      12      13      14      15
          16      17      18      19      20
 ...........................................................................................................................
   1   35.000  35.000  35.000  35.000  35.000  35.000  35.000  35.000  35.000  35.000  35.000  35.000  35.000  35.000  35.000
       35.000  35.000  35.000  35.000  35.000

                     CONCENTRATIONS   IN LAYER 20 AT END OF TRANSPORT STEP    3, TIME STEP  1, STRESS PERIOD  1
                     ------------------------------------------------------------------------------------------

           1       2       3       4       5       6       7       8       9      10      11      12      13      14      15
          16      17      18      19      20
 ...........................................................................................................................
   1   35.000  35.000  35.000  35.000  35.000  35.000  35.000  35.000  35.000  35.000  35.000  35.000  35.000  35.000  35.000
       35.000  35.000  35.000  35.000  35.000

                     CUMULATIVE MASS BUDGETS AT END OF TRANSPORT STEP    3, TIME STEP    1, STRESS PERIOD    1
                     ------------------------------------------------------------------------------------------

                                                             IN                           OUT
                                                      ----------------             ----------------
                               CONSTANT CONCENTRATION:    0.000000                    0.000000    
                                        CONSTANT HEAD:    0.000000                    0.000000    
                               MASS STOR (FLOW MODEL):    0.000000                    0.000000    
                                MASS STORAGE (SOLUTE):    0.000000                    0.000000    
                            ---------------------------------------------------------------------------
                                              [TOTAL]:    0.000000     KG             0.000000     KG  

                                                          NET (IN - OUT):    0.000000    
                                                   DISCREPANCY (PERCENT):    0.000000    
 
 SOLVING FOR HEAD 

     1 ITERATIONS FOR TIME STEP   1 IN STRESS PERIOD    1

 MAXIMUM HEAD CHANGE FOR EACH ITERATION:

    HEAD CHANGE   HEAD CHANGE   HEAD CHANGE   HEAD CHANGE   HEAD CHANGE
  LAYER,ROW,COL LAYER,ROW,COL LAYER,ROW,COL LAYER,ROW,COL LAYER,ROW,COL
 ----------------------------------------------------------------------
    -0.7778E-09
  ( 20,  1, 11)

 FLOW MODEL IS STEADY-STATE


 MAXIMUM STEPSIZE DURING WHICH ANY PARTICLE CANNOT MOVE MORE THAN ONE CELL
 = 0.4029E+09(WHEN MIN. R.F.=1)  AT K=  11, I=   1, J=   2

 MAXIMUM STEPSIZE WHICH MEETS STABILITY CRITERION OF THE ADVECTION TERM
 (FOR PURE FINITE-DIFFERENCE OPTION, MIXELM=0) 
 = 0.3705E+09(WHEN MIN. R.F.=1)  AT K=  10, I=   1, J=   4

 MAXIMUM STEPSIZE WHICH MEETS STABILITY CRITERION OF THE DISPERSION TERM
 = 0.2006E+09(WHEN MIN. R.F.=1)  AT K=  11, I=   1, J=   2
     1 CALLS TO GCG PACKAGE FOR TRANSPORT TIME STEP   4 IN FLOW TIME STEP   1 STRESS PERIOD   1
     1 TOTAL ITERATIONS



 >>>>>>>>>>>>>>>>>>>>>>>>>>>>>>>>>>>>>>>>>>>>>>>>>>>>>>>FOR COMPONENT NO. 01<<<<<<<<<<<<<<<<<<<<<<<<<<<<<<<<<<<<<<<<<<<<<<<<<<<<<<<


                                            -------------------------------------------
                                                      TRANSPORT STEP NO.    4
                                            -------------------------------------------

 TOTAL ELAPSED TIME SINCE BEGINNING OF SIMULATION =   1500.001    DAY 
 .....................................................................

                     CONCENTRATIONS   IN LAYER  1 AT END OF TRANSPORT STEP    4, TIME STEP  1, STRESS PERIOD  1
                     ------------------------------------------------------------------------------------------

           1       2       3       4       5       6       7       8       9      10      11      12      13      14      15
          16      17      18      19      20
 ...........................................................................................................................
   1    0.000   0.000   0.000   0.000   0.000   0.000   0.000   0.000   0.000   0.000   0.000   0.000   0.000   0.000   0.000
        0.000   0.000   0.000   0.000   0.000

                     CONCENTRATIONS   IN LAYER  2 AT END OF TRANSPORT STEP    4, TIME STEP  1, STRESS PERIOD  1
                     ------------------------------------------------------------------------------------------

[...]

           1       2       3       4       5       6       7       8       9      10      11      12      13      14      15
          16      17      18      19      20
 ...........................................................................................................................
   1   35.000  35.000  35.000  35.000  35.000  35.000  35.000  35.000  35.000  35.000  35.000  35.000  35.000  35.000  35.000
       35.000  35.000  35.000  35.000  35.000

                     CONCENTRATIONS   IN LAYER 20 AT END OF TRANSPORT STEP  101, TIME STEP  1, STRESS PERIOD  1
                     ------------------------------------------------------------------------------------------

           1       2       3       4       5       6       7       8       9      10      11      12      13      14      15
          16      17      18      19      20
 ...........................................................................................................................
   1   35.000  35.000  35.000  35.000  35.000  35.000  35.000  35.000  35.000  35.000  35.000  35.000  35.000  35.000  35.000
       35.000  35.000  35.000  35.000  35.000

                     CUMULATIVE MASS BUDGETS AT END OF TRANSPORT STEP  101, TIME STEP    1, STRESS PERIOD    1
                     ------------------------------------------------------------------------------------------

                                                             IN                           OUT
                                                      ----------------             ----------------
                               CONSTANT CONCENTRATION:    0.000000                    0.000000    
                                        CONSTANT HEAD:    0.000000                    0.000000    
                               MASS STOR (FLOW MODEL):    0.000000                    0.000000    
                                MASS STORAGE (SOLUTE):    0.000000                    0.000000    
                            ---------------------------------------------------------------------------
                                              [TOTAL]:    0.000000     KG             0.000000     KG  

                                                          NET (IN - OUT):    0.000000    
                                                   DISCREPANCY (PERCENT):    0.000000    
1
              HEAD IN LAYER   1 AT END OF TIME STEP   1 IN STRESS PERIOD    1
  ---------------------------------------------------------------------------

            1           2           3           4           5           6           7           8           9          10
           11          12          13          14          15          16          17          18          19          20
 ........................................................................................................................
   1    6.451       6.451       6.451       6.451       6.451       6.451       6.451       6.451       6.451       6.451    
        6.451       6.451       6.451       6.451       6.451       6.451       6.451       6.451       6.451       6.451    
1
              HEAD IN LAYER   2 AT END OF TIME STEP   1 IN STRESS PERIOD    1
  ---------------------------------------------------------------------------

            1           2           3           4           5           6           7           8           9          10
           11          12          13          14          15          16          17          18          19          20
 ........................................................................................................................
   1    6.451       6.451       6.451       6.451       6.451       6.451       6.451       6.451       6.451       6.451    
        6.451       6.451       6.451       6.451       6.451       6.451       6.451       6.451       6.451       6.451    
1
              HEAD IN LAYER   3 AT END OF TIME STEP   1 IN STRESS PERIOD    1
  ---------------------------------------------------------------------------

            1           2           3           4           5           6           7           8           9          10
           11          12          13          14          15          16          17          18          19          20
 ........................................................................................................................
   1    6.451       6.451       6.451       6.451       6.451       6.451       6.451       6.451       6.451       6.451    
        6.451       6.451       6.451       6.451       6.451       6.451       6.451       6.451       6.451       6.451    
1
              HEAD IN LAYER   4 AT END OF TIME STEP   1 IN STRESS PERIOD    1
  ---------------------------------------------------------------------------

            1           2           3           4           5           6           7           8           9          10
           11          12          13          14          15          16          17          18          19          20
 ........................................................................................................................
   1    6.451       6.451       6.451       6.451       6.451       6.451       6.451       6.451       6.451       6.451    
        6.451       6.451       6.451       6.451       6.451       6.451       6.451       6.451       6.451       6.451    
1
              HEAD IN LAYER   5 AT END OF TIME STEP   1 IN STRESS PERIOD    1
  ---------------------------------------------------------------------------

            1           2           3           4           5           6           7           8           9          10
           11          12          13          14          15          16          17          18          19          20
 ........................................................................................................................
   1    6.451       6.451       6.451       6.451       6.451       6.451       6.451       6.451       6.451       6.451    
        6.451       6.451       6.451       6.451       6.451       6.451       6.451       6.451       6.451       6.451    
1
              HEAD IN LAYER   6 AT END OF TIME STEP   1 IN STRESS PERIOD    1
  ---------------------------------------------------------------------------

            1           2           3           4           5           6           7           8           9          10
           11          12          13          14          15          16          17          18          19          20
 ........................................................................................................................
   1    6.451       6.451       6.451       6.451       6.451       6.451       6.451       6.451       6.451       6.451    
        6.451       6.451       6.451       6.451       6.451       6.451       6.451       6.451       6.451       6.451    
1
              HEAD IN LAYER   7 AT END OF TIME STEP   1 IN STRESS PERIOD    1
  ---------------------------------------------------------------------------

            1           2           3           4           5           6           7           8           9          10
           11          12          13          14          15          16          17          18          19          20
 ........................................................................................................................
   1    6.451       6.451       6.451       6.451       6.451       6.451       6.451       6.451       6.451       6.451    
        6.451       6.451       6.451       6.451       6.451       6.451       6.451       6.451       6.451       6.451    
1
              HEAD IN LAYER   8 AT END OF TIME STEP   1 IN STRESS PERIOD    1
  ---------------------------------------------------------------------------

            1           2           3           4           5           6           7           8           9          10
           11          12          13          14          15          16          17          18          19          20
 ........................................................................................................................
   1    6.451       6.451       6.451       6.451       6.451       6.451       6.451       6.451       6.451       6.451    
        6.451       6.451       6.451       6.451       6.451       6.451       6.451       6.451       6.451       6.451    
1
              HEAD IN LAYER   9 AT END OF TIME STEP   1 IN STRESS PERIOD    1
  ---------------------------------------------------------------------------

            1           2           3           4           5           6           7           8           9          10
           11          12          13          14          15          16          17          18          19          20
 ........................................................................................................................
   1    6.451       6.451       6.451       6.451       6.451       6.451       6.451       6.451       6.451       6.451    
        6.451       6.451       6.451       6.451       6.451       6.451       6.451       6.451       6.451       6.451    
1
              HEAD IN LAYER  10 AT END OF TIME STEP   1 IN STRESS PERIOD    1
  ---------------------------------------------------------------------------

            1           2           3           4           5           6           7           8           9          10
           11          12          13          14          15          16          17          18          19          20
 ........................................................................................................................
   1    6.451       6.451       6.451       6.451       6.451       6.451       6.451       6.451       6.451       6.451    
        6.451       6.451       6.451       6.451       6.451       6.451       6.451       6.451       6.451       6.451    
1
              HEAD IN LAYER  11 AT END OF TIME STEP   1 IN STRESS PERIOD    1
  ---------------------------------------------------------------------------

            1           2           3           4           5           6           7           8           9          10
           11          12          13          14          15          16          17          18          19          20
 ........................................................................................................................
   1    6.451       6.451       6.451       6.451       6.451       6.451       6.451       6.451       6.451       6.451    
        6.451       6.451       6.451       6.451       6.451       6.451       6.451       6.451       6.451       6.451    
1
              HEAD IN LAYER  12 AT END OF TIME STEP   1 IN STRESS PERIOD    1
  ---------------------------------------------------------------------------

            1           2           3           4           5           6           7           8           9          10
           11          12          13          14          15          16          17          18          19          20
 ........................................................................................................................
   1    6.451       6.451       6.451       6.451       6.451       6.451       6.451       6.451       6.451       6.451    
        6.451       6.451       6.451       6.451       6.451       6.451       6.451       6.451       6.451       6.451    
1
              HEAD IN LAYER  13 AT END OF TIME STEP   1 IN STRESS PERIOD    1
  ---------------------------------------------------------------------------

            1           2           3           4           5           6           7           8           9          10
           11          12          13          14          15          16          17          18          19          20
 ........................................................................................................................
   1    6.451       6.451       6.451       6.451       6.451       6.451       6.451       6.451       6.451       6.451    
        6.451       6.451       6.451       6.451       6.451       6.451       6.451       6.451       6.451       6.451    
1
              HEAD IN LAYER  14 AT END OF TIME STEP   1 IN STRESS PERIOD    1
  ---------------------------------------------------------------------------

            1           2           3           4           5           6           7           8           9          10
           11          12          13          14          15          16          17          18          19          20
 ........................................................................................................................
   1    6.451       6.451       6.451       6.451       6.451       6.451       6.451       6.451       6.451       6.451    
        6.451       6.451       6.451       6.451       6.451       6.451       6.451       6.451       6.451       6.451    
1
              HEAD IN LAYER  15 AT END OF TIME STEP   1 IN STRESS PERIOD    1
  ---------------------------------------------------------------------------

            1           2           3           4           5           6           7           8           9          10
           11          12          13          14          15          16          17          18          19          20
 ........................................................................................................................
   1    6.451       6.451       6.451       6.451       6.451       6.451       6.451       6.451       6.451       6.451    
        6.451       6.451       6.451       6.451       6.451       6.451       6.451       6.451       6.451       6.451    
1
              HEAD IN LAYER  16 AT END OF TIME STEP   1 IN STRESS PERIOD    1
  ---------------------------------------------------------------------------

            1           2           3           4           5           6           7           8           9          10
           11          12          13          14          15          16          17          18          19          20
 ........................................................................................................................
   1    6.451       6.451       6.451       6.451       6.451       6.451       6.451       6.451       6.451       6.451    
        6.451       6.451       6.451       6.451       6.451       6.451       6.451       6.451       6.451       6.451    
1
              HEAD IN LAYER  17 AT END OF TIME STEP   1 IN STRESS PERIOD    1
  ---------------------------------------------------------------------------

            1           2           3           4           5           6           7           8           9          10
           11          12          13          14          15          16          17          18          19          20
 ........................................................................................................................
   1    6.451       6.451       6.451       6.451       6.451       6.451       6.451       6.451       6.451       6.451    
        6.451       6.451       6.451       6.451       6.451       6.451       6.451       6.451       6.451       6.451    
1
              HEAD IN LAYER  18 AT END OF TIME STEP   1 IN STRESS PERIOD    1
  ---------------------------------------------------------------------------

            1           2           3           4           5           6           7           8           9          10
           11          12          13          14          15          16          17          18          19          20
 ........................................................................................................................
   1   -34.36      -34.36      -34.36      -34.36      -34.36      -34.36      -34.36      -34.36      -34.36      -34.36    
       -34.36      -34.36      -34.36      -34.36      -34.36      -34.36      -34.36      -34.36      -34.36      -34.36    
1
              HEAD IN LAYER  19 AT END OF TIME STEP   1 IN STRESS PERIOD    1
  ---------------------------------------------------------------------------

            1           2           3           4           5           6           7           8           9          10
           11          12          13          14          15          16          17          18          19          20
 ........................................................................................................................
   1   -34.36      -34.36      -34.36      -34.36      -34.36      -34.36      -34.36      -34.36      -34.36      -34.36    
       -34.36      -34.36      -34.36      -34.36      -34.36      -34.36      -34.36      -34.36      -34.36      -34.36    
1
              HEAD IN LAYER  20 AT END OF TIME STEP   1 IN STRESS PERIOD    1
  ---------------------------------------------------------------------------

            1           2           3           4           5           6           7           8           9          10
           11          12          13          14          15          16          17          18          19          20
 ........................................................................................................................
   1   -34.36      -34.36      -34.36      -34.36      -34.36      -34.36      -34.36      -34.36      -34.36      -34.36    
       -34.36      -34.36      -34.36      -34.36      -34.36      -34.36      -34.36      -34.36      -34.36      -34.36    

 HEAD WILL BE SAVED ON UNIT   30 AT END OF TIME STEP   1, STRESS PERIOD    1
1
  MASS BUDGET FOR ENTIRE MODEL AT END OF TIME STEP  1 IN STRESS PERIOD   1
  ------------------------------------------------------------------------------

     CUMULATIVE MASS      M       RATES FOR THIS TIME STEP      M/T
     ------------------                 ------------------------

           IN:                                      IN:
           ---                                      ---
             STORAGE =           0.0000               STORAGE =           0.0000
       CONSTANT HEAD =           0.0000         CONSTANT HEAD =           0.0000
                DCDT =           0.0000                  DCDT =           0.0000

            TOTAL IN =           0.0000              TOTAL IN =           0.0000

          OUT:                                     OUT:
          ----                                     ----
             STORAGE =           0.0000               STORAGE =           0.0000
       CONSTANT HEAD =           0.0000         CONSTANT HEAD =           0.0000
                DCDT =           0.0000                  DCDT =           0.0000

           TOTAL OUT =           0.0000             TOTAL OUT =           0.0000

            IN - OUT =           0.0000              IN - OUT =           0.0000

 PERCENT DISCREPANCY =           0.00     PERCENT DISCREPANCY =           0.00



0


          TIME SUMMARY AT END OF TRANSPORT STEP  101 IN TIME STEP    1 IN STRESS PERIOD   1
                    SECONDS     MINUTES      HOURS       DAYS        YEARS
                    -----------------------------------------------------------
  TRANS STEP LENGTH 4.31999E+07 7.19999E+05  12000.      500.00      1.3689    
   TIME STEP LENGTH 4.32000E+09 7.20000E+07 1.20000E+06  50000.      136.89    
 STRESS PERIOD TIME 4.32000E+09 7.20000E+07 1.20000E+06  50000.      136.89    
         TOTAL TIME 4.32000E+09 7.20000E+07 1.20000E+06  50000.      136.89    
1
